! UKS B3LYP SmallPrint TightSCF
%basis basis "EPR-II"
 newGTO Cu "CP(PPP)" end
end
%maxcore 4096

%pal nprocs 16 end

%method
SpecialGridAtoms 29,7
SpecialGridIntAcc 9,8
end
* xyz 2 2
  Cu          4.90705840779185      1.88495535152763      4.32842239204393
  O           4.84213607789121      4.53806342218556     10.24127619151112
  N           6.56300096253853      1.12202549627517      3.40086900087725
  N           4.69978198146741     -0.66233834056647      4.60019336217965
  N           3.93188498476158      1.34173410606556      2.61745669607396
  N           5.49326799387934      3.72313035197271      2.60670655845883
  N           5.82749123565551      2.44823515695863      6.08437446981435
  N           3.28463085003871      2.70909097897208      5.30516028634294
  N           2.05979841930651      4.87249994499092      9.41900636515100
  N           1.23700942330103      6.51122954120675     12.50845162727244
  C           6.99925953518788     -0.09295054415919      3.77518835707240
  C           6.14955491679421     -0.89675412764945      4.73925976528630
  H           6.41733829346214     -1.95124225393547      4.60373821767795
  H           6.44163688667453     -0.63374865933669      5.75603291870627
  C           3.88691019032641     -1.32208518629595      5.71345087784197
  C           2.41027282409219     -0.94434103358818      5.53297464656023
  H           2.27502831736646      0.13615278141239      5.55704935127571
  H           1.82863334176629     -1.37315987475020      6.34894812803215
  H           1.97922210918910     -1.32650715100505      4.60751241264017
  C           4.34254015460839     -0.79042011424287      7.07949868848296
  H           5.33276656490859     -1.14355761890479      7.36705844240593
  H           3.65293242289065     -1.14607798318432      7.84503654336743
  H           4.33560689823215      0.29833793344549      7.10660861284140
  C           4.03153880719811     -2.85578081562920      5.70873222970587
  H           3.69842837996247     -3.31061341186739      4.77455603015775
  H           3.41752835712962     -3.28011599378606      6.50380891139391
  H           5.05791411829174     -3.17408723296780      5.89531467372732
  C           4.22225815690445     -1.03432068558319      3.25525797606993
  H           3.52287654556875     -1.86721123983838      3.29820389534531
  H           5.06228112822107     -1.40778652933676      2.65958497707644
  C           3.59287566219348      0.06192661512138      2.40819216627872
  C           3.63462836737765      2.29468718951443      1.71708062949707
  C           2.86152291976791      1.99711996677758      0.60254459532072
  H           2.63141688603068      2.76968514038769     -0.11903438495120
  C           2.40265042649333      0.69778673670803      0.42704354153560
  H           1.78013646636232      0.44755782905959     -0.42243190948749
  C           2.79018532109518     -0.28462741074109      1.32537419801447
  H           2.49763378504215     -1.31607194470082      1.17806416406092
  C           4.17676040859319      3.69214726963316      1.94229402611091
  H           4.18709677938451      4.19559434679160      0.96848710870425
  H           3.46800830186349      4.23738137972572      2.56555220851522
  C           5.92324202061449      5.13365754406697      3.00295268173945
  C           6.10043778138540      6.05582083237321      1.78169624056824
  H           6.86513629259563      5.70222247942964      1.08820466112784
  H           6.41297636428656      7.04526140592503      2.11736397259424
  H           5.17150210908210      6.18805901432114      1.22551922202899
  C           4.87600536546194      5.75395622159336      3.93849160693876
  H           3.94926891656174      6.01415114146164      3.42693126976888
  H           5.27405956153802      6.68108737383112      4.35099958847018
  H           4.64405567054789      5.09133355222465      4.77093440775405
  C           7.24760691089447      5.04497054583017      3.77400989214901
  H           8.06860756665487      4.65288835053409      3.17354571550919
  H           7.14254365822928      4.42562283454035      4.66367390192316
  H           7.54334103246437      6.04374689627366      4.09494622019352
  C           6.51570558993843      3.02129101274837      1.81039333536717
  H           6.06015654307577      2.63102568981149      0.89379692522451
  H           7.28995937169812      3.70310940454566      1.46291289308256
  C           7.20061704288712      1.82407982038967      2.45295437562095
  C           8.41674565460022      1.37648929309808      1.94550917956482
  H           8.93964952937779      1.96249685951003      1.20095802475404
  C           8.92723980565239      0.16256295077515      2.37949188834787
  H           9.87077242628372     -0.20311263735631      1.99497021889807
  C           8.19162541146207     -0.60114690811902      3.27666684961838
  H           8.53193152683451     -1.58228592023121      3.58033490001722
  C           7.10147871715225      2.30236607786963      6.44417816592596
  H           7.76077204477974      1.83755293840851      5.72323416473185
  C           7.58689314845372      2.73050198647012      7.67724445890591
  H           8.63073776975700      2.58780118250151      7.92029742126913
  C           6.71516410487527      3.33561350641016      8.56394865155919
  H           7.03645771436750      3.68947428890903      9.53510035257019
  C           5.37571573075002      3.50289610649517      8.20431153273621
  C           4.96927623642340      3.04121443658028      6.94911173286247
  C           3.59912916285866      3.18541124301054      6.53266651684998
  C           2.03644000760019      2.81522106682635      4.86554854296179
  C           1.34537030894409      3.90109081420557      6.88732672151878
  C           2.66124151258898      3.80172451920830      7.39034796658216
  C           3.03954927079290      4.29614339271767      8.69913762461692
  C           2.21363438336226      5.36825047310040     10.62542102711441
  H           3.16965515523778      5.32293111706647     11.12749765703611
  C           1.11665428355794      5.96744430588254     11.29524244439685
  C          -0.00296431634628      7.00565608284061     12.98225428135816
  C          -0.28170669864420      7.61176183497847     14.19821713044763
  H           0.47293978725503      7.76798327673516     14.95646219403606
  C          -1.59728274468574      8.01251525768647     14.41490596836763
  H          -1.85861319007878      8.48848264009923     15.35058480604336
  C          -2.57893369852909      7.80800360465777     13.44685725259049
  H          -3.59350012212690      8.12974484119720     13.64115676115099
  C          -2.27168869116683      7.19217438145066     12.23285600755127
  H          -3.04593832421797      7.03817588395684     11.49174630962419
  C          -0.96874833445319      6.78715377919201     12.00550996413086
  C          -0.32769659758995      6.10003668392090     10.81795423306720
  C          -0.96486235677455      4.71552278679988     10.56896771729443
  H          -0.45985905643897      4.20366950949728      9.75242753493425
  H          -2.01684889471860      4.84430713733358     10.31178169183051
  H          -0.91147454518540      4.08802239529775     11.45952057360119
  C          -0.41313961508513      6.98605306553943      9.55425252360953
  H           0.02778496857196      7.96816811556402      9.72922159884393
  H          -1.46034932023125      7.13079338032414      9.28614878130626
  H           0.10565522941097      6.51460358937405      8.72211026766217
  C           2.45135159768668      6.60235899503687     13.31531897597379
  H           2.46752124599366      5.80431009235021     14.05927384877848
  H           2.46148721348354      7.56438757238100     13.82334046830718
  H           3.33244818175528      6.53083947549351     12.68738268766822
  C           4.42118146239581      4.15499182366042      9.14747304773183
  H           0.59002338594694      4.36549795687222      7.50305546181485
  H           1.81786445650445      2.41073085267963      3.88725207284301
  C           1.03756835758540      3.41270770193857      5.63885904421318
  H           0.03197830644313      3.48176168323968      5.24662289332729
*

%eprnmr
   GTensor 1
   nuclei = all Cu { aiso, adip, aorb, fgrad }
   nuclei = all N { aiso, adip, aorb, fgrad }
end


